cases/transmission/generated_cases/hourly_case_1.m
%% MATPOWER Case Format : Version 2
function mpc = case2383wp
mpc.version = '2';

%%-----  Power Flow Data  -----%%
%% system MVA base
mpc.baseMVA = 100;
%% bus data
%    bus_i    type    Pd    Qd    Gs    Bs    area    Vm    Va    baseKV    zone    Vmax    Vmin
mpc.bus = [
	1	1	0.0	0.0	0.0	0.0	1	1.0210792240949693	3.642764499044229	220.0	1	1.11	0.95				
	2	1	0.0	0.0	0.0	0.0	1	1.0074175679832664	-0.9768401998963419	220.0	1	1.11	0.95				
	3	1	0.0	0.0	0.0	0.0	1	1.038952127705744	-7.622656961504084	220.0	1	1.11	0.95				
	4	1	0.0	0.0	0.0	0.0	1	1.0161363681516453	-0.2490431681365745	220.0	1	1.11	0.95				
	5	1	0.0	0.0	0.0	0.0	1	1.0368807219674072	-2.246090088689985	220.0	1	1.11	0.95				
	6	1	0.0	0.0	0.0	0.0	1	1.0078133389814141	0.1333490873229214	400.0	1	1.05	0.95				
	7	1	0.0	0.0	0.0	0.0	1	1.032638861077102	-2.592905958889944	220.0	1	1.11	0.95				
	8	1	0.0	0.0	0.0	0.0	1	1.0062045035859943	0.06769624653348442	400.0	1	1.05	0.95				
	9	1	0.0	0.0	0.0	0.0	1	1.0174011598549997	-1.359745725127755	400.0	1	1.05	0.95				
	10	2	6.115	4.5	0.0	0.0	1	1.0409505726335453	-5.942748121473455	220.0	1	1.11	0.95				
	11	1	0.0	0.0	0.0	0.0	1	1.0170553932300992	0.045904203295094384	220.0	1	1.11	0.95				
	12	1	0.0	0.0	0.0	0.0	1	1.0338407839650212	-3.2293060107575324	220.0	1	1.11	0.95				
	13	1	0.0	0.0	0.0	0.0	1	1.0362638444940862	-2.5069214591715516	220.0	1	1.11	0.95				
	14	1	0.0	0.0	0.0	0.0	1	1.004350334141429	-0.8770637313690789	220.0	1	1.11	0.95				
	15	1	0.0	0.0	0.0	0.0	1	1.0016429875015498	-0.4804143576581397	400.0	1	1.05	0.95				
	16	2	27.440000000000005	50.0	0.0	0.0	1	1.0212834037677427	4.034602002989633	220.0	1	1.11	0.95				
	17	2	38.5	75.0	0.0	0.0	1	1.0079974751382537	-0.6286034977115199	220.0	1	1.11	0.95				
	18	3	76.5	175.0	0.0	0.0	1	0.9741229341498275	-4.2622598333078776e-26	400.0	1	1.05	0.95				
	19	1	0.0	0.0	0.0	0.0	1	1.038825543285193	-3.1451907624046385	220.0	1	1.11	0.95				
	20	1	0.0	0.0	0.0	0.0	1	0.9775691066442856	-0.1484731528628614	400.0	1	1.05	0.95				
	21	1	0.0	0.0	0.0	0.0	1	1.0335317506228079	-2.7132053365658657	220.0	1	1.11	0.95				
	22	1	0.0	0.0	0.0	0.0	1	1.0224750127759399	-1.2108904966610226	220.0	1	1.11	0.95				
	23	1	0.0	0.0	0.0	0.0	1	1.0504924485448048	-1.780470468914778	220.0	2	1.11	0.95				
	24	1	0.0	0.0	0.0	0.0	1	1.060916292949444	-1.8775960408892651	220.0	2	1.11	0.95				
	25	1	0.0	0.0	0.0	0.0	1	1.0545568085866002	-1.398253882516061	220.0	2	1.11	0.95				
	26	1	0.0	0.0	0.0	0.0	1	1.0507962790322523	-1.7817005750028219	220.0	2	1.11	0.95				
	27	1	0.0	0.0	0.0	0.0	1	1.0371380747369798	-1.2063796381452778	220.0	2	1.11	0.95				
	28	1	0.0	0.0	0.0	0.0	1	1.0371441729753046	-1.2048256663904247	220.0	2	1.11	0.95				
	29	2	12.990000000000002	30.0	0.0	0.0	1	1.0457524103705822	-0.976192594857608	220.0	2	1.11	0.95				
	30	2	12.990000000000002	30.0	0.0	0.0	1	1.0457240666486072	-0.9801855382053218	220.0	2	1.11	0.95				
	31	2	10.49	25.0	0.0	0.0	1	1.0046667707589552	2.937779776504465	400.0	2	1.05	0.95				
	32	1	0.0	0.0	0.0	0.0	1	1.0045624191079197	2.90864693843239	400.0	2	1.05	0.95				
	33	1	0.0	0.0	0.0	0.0	1	1.0349364645289953	-1.6027129053984124	220.0	2	1.11	0.95				
	34	1	0.0	0.0	0.0	0.0	1	1.0429630217622086	-0.9212721236567348	400.0	2	1.05	0.95				
	35	1	0.0	0.0	0.0	0.0	1	1.04300866882488	-0.9241227624868538	400.0	2	1.05	0.95				
	36	1	0.0	0.0	0.0	0.0	1	0.9960435794133199	0.8615154855274434	400.0	2	1.05	0.95				
	37	1	0.0	0.0	0.0	0.0	1	1.0522931673605465	-0.5844954120937204	220.0	2	1.11	0.95				
	38	1	0.0	0.0	0.0	0.0	1	1.0522759735379186	-0.5811051382979621	220.0	2	1.11	0.95				
	39	1	0.0	0.0	0.0	0.0	1	1.0101062795964921	1.063484849949447	400.0	2	1.05	0.95				
	40	1	0.0	0.0	0.0	0.0	1	1.0101357609088097	1.057224501466736	400.0	2	1.05	0.95				
	41	2	5.995	15.0	0.0	0.0	1	1.0548683707336057	-0.7746996665711184	220.0	2	1.11	0.95				
	42	2	5.995	15.0	0.0	0.0	1	1.0548484802231608	-0.7807253802757784	220.0	2	1.11	0.95				
	43	2	11.99	30.0	0.0	0.0	1	1.0177732873644192	1.0479229091686577	400.0	2	1.05	0.95				
	44	2	11.99	30.0	0.0	0.0	1	1.0177987323906692	1.0367362685903796	400.0	2	1.05	0.95				
	45	2	79.92	37.5	0.0	0.0	1	1.043190909976109	-1.5387075791369118	220.0	2	1.11	0.95				
	46	1	0.0	0.0	0.0	0.0	1	1.0432168960282988	-1.5376492127929497	220.0	2	1.11	0.95				
	47	1	0.0	0.0	0.0	0.0	1	1.0392833172595037	-1.6633637968910586	220.0	2	1.11	0.95				
	48	1	0.0	0.0	0.0	0.0	1	1.0416042405732044	-1.8346575866980677	220.0	2	1.11	0.95				
	49	1	0.0	0.0	0.0	0.0	1	1.0416088615579902	-1.8349089348725725	220.0	2	1.11	0.95				
	50	1	0.0	0.0	0.0	0.0	1	1.0253192794947115	-0.13860583628150214	400.0	2	1.05	0.95				
	51	1	0.0	0.0	0.0	0.0	1	1.0254484157790404	-0.14642482923429942	400.0	2	1.05	0.95				
	52	1	0.0	0.0	0.0	0.0	1	1.049010371073559	-1.9959226644757195	220.0	2	1.11	0.95				
	53	1	0.0	0.0	0.0	0.0	1	1.0507843903920873	-1.869082799885374	220.0	2	1.11	0.95				
	54	1	0.0	0.0	0.0	0.0	1	1.0548016071692727	-1.379497048552852	220.0	2	1.11	0.95				
	55	1	0.0	0.0	0.0	0.0	1	1.0505402844738325	0.6439325179432389	220.0	2	1.11	0.95				
	56	1	0.0	0.0	0.0	0.0	1	1.0244615048966474	0.050854107440080606	220.0	3	1.11	0.95				
	57	1	11.49	5.48	0.0	0.0	1	1.0663281055619203	0.09360422697801178	220.0	3	1.11	0.95				
	58	1	10.99	2.895	0.0	0.0	1	1.0664408476452205	0.09295829413918662	220.0	3	1.11	0.95				
	59	1	0.0	0.0	0.0	0.0	1	1.0460079641550295	6.192730933103704	220.0	3	1.11	0.95				
	60	1	0.0	0.0	0.0	0.0	1	1.0296164192209472	0.7140653788268838	220.0	3	1.11	0.95				
	61	1	0.0	0.0	0.0	0.0	1	1.050052208203275	8.30561094684477	220.0	3	1.11	0.95				
	62	1	0.0	0.0	0.0	0.0	1	1.05006079596971	8.310446004398008	220.0	3	1.11	0.95				
	63	2	18.685	26.344999999999995	0.0	0.0	1	1.04517890652861	6.156259424123447	220.0	3	1.11	0.95				
	64	2	17.685	27.66	0.0	0.0	1	1.0408985778169222	4.367745669795672	220.0	3	1.11	0.95				
	65	1	6.695000000000001	1.01	0.0	0.0	1	1.0412837470583332	4.207836498593033	220.0	3	1.11	0.95				
	66	1	0.0	0.0	0.0	0.0	1	1.0389458341759625	-0.37402385257063975	220.0	3	1.11	0.95				
	67	2	30.2	46.05	0.0	0.0	1	0.9788300962473468	0.916714590489413	400.0	3	1.05	0.95				
	68	1	0.0	0.0	0.0	0.0	1	1.033749599631163	-0.6865522431120288	220.0	3	1.11	0.95				
	69	1	0.0	0.0	0.0	0.0	1	1.0356271489511877	3.5103559526229633	220.0	3	1.11	0.95				
	70	1	0.0	0.0	0.0	0.0	1	1.0263587557537042	0.8842206585159892	220.0	3	1.11	0.95				
	71	1	0.0	0.0	0.0	0.0	1	1.0290157021638708	3.529008913374297	220.0	3	1.11	0.95				
	72	1	0.0	0.0	0.0	0.0	1	1.0290157021638708	3.529008913374297	220.0	3	1.11	0.95				
	73	1	0.0	0.0	0.0	0.0	1	1.0277956885908477	1.4349954022237335	220.0	3	1.11	0.95				
	74	1	0.0	0.0	0.0	0.0	1	1.0267061027560447	0.4277894987218892	220.0	3	1.11	0.95				
	75	1	0.0	0.0	0.0	0.0	1	0.9744287710139617	-0.5709442473667178	400.0	3	1.05	0.95				
	76	1	0.0	0.0	0.0	0.0	1	0.9744047082067124	-0.5745785848194185	400.0	3	1.05	0.95				
	77	1	0.0	0.0	0.0	0.0	1	1.0285318044731064	3.0169639706474	220.0	3	1.11	0.95				
	78	1	0.0	0.0	0.0	0.0	1	1.0286236973678458	0.3610279594355562	220.0	3	1.11	0.95				
	79	1	0.0	0.0	0.0	0.0	1	1.0376246857860152	3.264120637785089	220.0	3	1.11	0.95				
	80	1	0.0	0.0	0.0	0.0	1	1.0666419400311768	0.11937717510482293	220.0	3	1.11	0.95				
	81	1	0.0	0.0	0.0	0.0	1	1.066653357255452	0.12019405853662865	220.0	3	1.11	0.95				
	82	1	0.0	0.0	0.0	0.0	1	1.049450162871637	7.408275350523261	220.0	3	1.11	0.95				
	83	2	7.995000000000001	11.485	0.0	0.0	1	1.0329997790587828	3.4849792917578792	220.0	3	1.11	0.95				
	84	2	7.895	11.135	0.0	0.0	1	1.0330681351953277	3.4840023457792237	220.0	3	1.11	0.95				
	85	2	4.995	8.505	0.0	0.0	1	1.0268500331992305	2.6077934052954435	220.0	3	1.11	0.95				
	86	2	4.995	8.33	0.0	0.0	1	1.0268198671687783	2.610652270854493	220.0	3	1.11	0.95				
	87	1	5.545	8.11	0.0	0.0	1	1.034116983726923	2.2063718900349674	220.0	3	1.11	0.95				
	88	1	0.0	0.0	0.0	0.0	1	1.0341427302837563	2.206896829658096	220.0	3	1.11	0.95				
	89	1	0.0	0.0	0.0	0.0	1	1.0425535200565952	3.302247710005628	220.0	3	1.11	0.95				
	90	1	0.0	0.0	0.0	0.0	1	1.034026093109436	2.465156667842703	220.0	3	1.11	0.95				
	91	1	0.0	0.0	0.0	0.0	1	1.0433041597066688	4.868939596412839	220.0	3	1.11	0.95				
	92	1	0.0	0.0	0.0	0.0	1	0.9755866931931667	-0.952091692297106	400.0	3	1.05	0.95				
	93	2	4.995	8.195	0.0	0.0	1	1.0420573253050653	4.354356429850608	220.0	3	1.11	0.95				
	94	1	0.0	0.0	0.0	0.0	1	1.0420494886065523	4.35988745236653	220.0	3	1.11	0.95				
	95	2	3.4450000000000003	4.075	0.0	0.0	1	1.048253752953686	3.4940358546223504	220.0	3	1.11	0.95				
	96	1	0.0	0.0	0.0	0.0	1	1.0482627727202403	3.4935018356315366	220.0	3	1.11	0.95				
	97	2	4.345	2.63	0.0	0.0	1	1.0781320903363005	4.349616975471591	220.0	3	1.11	0.95				
	98	1	0.0	0.0	0.0	0.0	1	1.0126928172451837	0.10930224090806935	400.0	3	1.05	0.95				
	99	1	0.0	0.0	0.0	0.0	1	1.0127288791898812	0.11271666805020525	400.0	3	1.05	0.95				
	100	1	0.0	0.0	0.0	0.0	1	0.9915647293053513	-0.28923640667690986	400.0	3	1.05	0.95				
	101	1	0.0	0.0	0.0	0.0	1	0.9916187403145293	-0.28680896468851386	400.0	3	1.05	0.95				
	102	1	0.0	0.0	0.0	0.0	1	1.0444261672420334	3.2577816978899956	220.0	3	1.11	0.95				
	103	2	9.045	11.88	0.0	0.0	1	1.0244857071860909	1.3534352228444497	220.0	3	1.11	0.95				
	104	2	16.84	23.055	0.0	0.0	1	1.0245426435828033	1.355365435568481	220.0	3	1.11	0.95				
	105	2	16.89	31.475	0.0	0.0	1	0.9591667220852543	-1.7017100400693923	400.0	3	1.05	0.95				
	106	1	0.0	0.0	0.0	0.0	1	0.9592985805273352	-1.6937389096249489	400.0	3	1.05	0.95				
	107	1	0.0	0.0	0.0	0.0	1	1.0257238022722066	0.6498980923816198	220.0	3	1.11	0.95				
	108	1	0.0	0.0	0.0	0.0	1	1.0263464198334418	0.6630349248219238	220.0	3	1.11	0.95				
	109	2	0.5	11.18	0.0	0.0	1	1.0515956376301634	9.110638918274608	220.0	3	1.11	0.95				
	110	2	0.5	11.09	0.0	0.0	1	1.0516027617723263	9.11547254475648	220.0	3	1.11	0.95				
	111	2	13.245	9.0	0.0	0.0	1	1.0369708311580168	-1.988443228575795	220.0	4	1.11	0.95				
	112	1	0.0	0.0	0.0	0.0	1	1.0369094713860267	-1.9861407200504435	220.0	4	1.11	0.95				
	113	1	0.0	0.0	0.0	0.0	1	1.0449134442308536	-4.620008829194091	220.0	4	1.11	0.95				
	114	1	0.0	0.0	0.0	0.0	1	1.0495687240032412	-4.047214436917286	220.0	4	1.11	0.95				
	115	1	0.0	0.0	0.0	0.0	1	0.9623593076760532	-2.8681225348464676	400.0	4	1.05	0.95				
	116	1	0.0	0.0	0.0	0.0	1	0.9624017710786972	-2.8658489199381783	400.0	4	1.05	0.95				
	117	1	0.0	0.0	0.0	0.0	1	1.066672513868839	-3.1866006235311666	220.0	4	1.11	0.95				
	118	1	0.0	0.0	0.0	0.0	1	1.045405365634448	-0.796670523527339	220.0	4	1.11	0.95				
	119	1	0.0	0.0	0.0	0.0	1	1.045405365634448	-0.796670523527339	220.0	4	1.11	0.95				
	120	1	0.0	0.0	0.0	0.0	1	1.042023510368817	-2.7103085181860616	220.0	4	1.11	0.95				
	121	1	0.0	0.0	0.0	0.0	1	1.0552809508909267	-4.492648164213206	220.0	4	1.11	0.95				
	122	1	0.0	0.0	0.0	0.0	1	1.0552809508909267	-4.492648164213206	220.0	4	1.11	0.95				
	123	2	2.75	3.5000000000000004	0.0	0.0	1	1.0517614529019375	-2.388971161845625	220.0	4	1.11	0.95				
	124	2	4.395	8.5	0.0	0.0	1	1.0517732894515555	-2.389249438844077	220.0	4	1.11	0.95				
	125	2	17.85	9.15	0.0	0.0	1	1.0533069969564839	0.49463548373020877	220.0	4	1.11	0.95				
	126	1	12.64	7.95	0.0	0.0	1	1.053282677038984	0.5029285676840552	220.0	4	1.11	0.95				
	127	2	12.855	7.6499999999999995	0.0	0.0	1	1.010268043836535	4.711559000828452	400.0	4	1.05	0.95				
	128	1	0.0	0.0	0.0	0.0	1	1.0102418932969666	4.698528547843213	400.0	4	1.05	0.95				
	129	1	0.0	0.0	0.0	0.0	1	1.0554664977630561	-4.399156756027374	220.0	4	1.11	0.95				
	130	1	0.0	0.0	0.0	0.0	1	1.036831435614759	-4.252588333355818	220.0	4	1.11	0.95				
	131	2	34.335	35.0	0.0	0.0	1	1.0532590613601673	-2.5047771821422145	220.0	4	1.11	0.95				
	132	2	16.5	22.5	0.0	0.0	1	1.0532663821685262	-2.503027309266345	220.0	4	1.11	0.95				
	133	1	0.0	0.0	0.0	0.0	1	0.9503894698841956	-2.4092215804781723	400.0	4	1.05	0.95				
	134	1	0.0	0.0	0.0	0.0	1	0.9503500231190029	-2.408508133065363	400.0	4	1.05	0.95				
	135	1	0.0	0.0	0.0	0.0	1	1.0446871946177356	-0.8874947067273268	220.0	4	1.11	0.95				
	136	1	0.0	0.0	0.0	0.0	1	1.0446871946177356	-0.8874947067273268	220.0	4	1.11	0.95				
	137	1	0.0	0.0	0.0	0.0	1	0.9749172918355352	-1.965094338765211	400.0	4	1.05	0.95				
	138	1	0.0	0.0	0.0	0.0	1	0.9749172918355352	-1.965094338765211	400.0	4	1.05	0.95				
	139	2	16.6	11.3	0.0	0.0	1	1.0525050756383312	-2.4372342002645375	220.0	4	1.11	0.95				
	140	2	14.615	9.8	0.0	0.0	1	1.0525217526000774	-2.438235088351926	220.0	4	1.11	0.95				
	141	1	0.0	0.0	0.0	0.0	1	1.0718063458854539	-3.0825185804905195	220.0	4	1.11	0.95				
	142	1	0.0	0.0	0.0	0.0	1	1.044001406266877	-0.8888444276961017	220.0	4	1.11	0.95				
	143	1	0.0	0.0	0.0	0.0	1	1.0727537029952574	-3.1556871373627766	220.0	4	1.11	0.95				
	144	1	0.0	0.0	0.0	0.0	1	1.0727010739502028	-3.1583286914824766	220.0	4	1.11	0.95				
	145	1	0.0	0.0	0.0	0.0	1	0.9692670533737449	-0.9975016363407758	400.0	4	1.05	0.95				
	146	1	0.0	0.0	0.0	0.0	1	0.9692670533737449	-0.9975016363407758	400.0	4	1.05	0.95				
	147	1	0.0	0.0	0.0	0.0	1	1.0466140926945728	-4.466235250825759	220.0	4	1.11	0.95				
	148	1	0.0	0.0	0.0	0.0	1	1.0466489080794918	-4.464953689356789	220.0	4	1.11	0.95				
	149	1	0.0	0.0	0.0	0.0	1	1.0706024051432992	-3.376062389076569	220.0	4	1.11	0.95				
	150	1	0.0	0.0	0.0	0.0	1	1.0465310401423138	-4.335550791968876	220.0	4	1.11	0.95				
	151	1	0.0	0.0	0.0	0.0	1	1.0465493981572735	-4.337080407271501	220.0	4	1.11	0.95				
	152	1	0.0	0.0	0.0	0.0	1	1.0427397703941534	-3.7723388534982663	220.0	4	1.11	0.95				
	153	1	0.0	0.0	0.0	0.0	1	1.0427397703941534	-3.7723388534982663	220.0	4	1.11	0.95				
	154	1	0.0	0.0	0.0	0.0	1	1.0379745953182884	-4.962583297812594	220.0	4	1.11	0.95				
	155	1	0.0	0.0	0.0	0.0	1	1.053153703362413	-1.7604069848054207	220.0	5	1.11	0.95				
	156	1	0.0	0.0	0.0	0.0	1	1.1078542986345765	2.5197502013559143	220.0	5	1.11	0.95				
	157	1	0.0	0.0	0.0	0.0	1	1.01286002660957	3.896007424676047	400.0	5	1.05	0.95				
	158	1	0.0	0.0	0.0	0.0	1	1.0128289270074515	3.898097854304022	400.0	5	1.05	0.95				
	159	1	0.0	0.0	0.0	0.0	1	1.0096654524085888	3.6394278456848523	400.0	5	1.05	0.95				
	160	1	0.0	0.0	0.0	0.0	1	1.009693161963056	3.642564490467061	400.0	5	1.05	0.95				
	161	1	0.0	0.0	0.0	0.0	1	1.066081930214086	0.4888787881140197	220.0	5	1.11	0.95				
	162	1	0.0	0.0	0.0	0.0	1	1.0660858771304131	0.4900093486246046	220.0	5	1.11	0.95				
	163	1	0.0	0.0	0.0	0.0	1	1.0874013794566462	-0.4080700756437642	220.0	5	1.11	0.95				
	164	1	0.0	0.0	0.0	0.0	1	1.0873868214923479	-0.4121384698589419	220.0	5	1.11	0.95				
	165	1	0.0	0.0	0.0	0.0	1	0.9952455231529058	-0.3094686588066114	400.0	5	1.05	0.95				
	166	1	0.0	0.0	0.0	0.0	1	1.0619863221136718	-1.5876134816637166	220.0	5	1.11	0.95				
	167	1	0.0	0.0	0.0	0.0	1	1.0620222859525759	-1.5866753454220957	220.0	5	1.11	0.95				
	168	1	0.0	0.0	0.0	0.0	1	1.014193304417013	1.4515364282041539	400.0	5	1.05	0.95				
	169	1	0.0	0.0	0.0	0.0	1	1.014194105687703	1.4428889329087142	400.0	5	1.05	0.95				
	170	1	0.0	0.0	0.0	0.0	1	1.0398309381052437	-4.305272636782725	220.0	5	1.11	0.95				
	171	1	0.0	0.0	0.0	0.0	1	1.039848560135206	-4.3065257465734765	220.0	5	1.11	0.95				
	172	1	0.0	0.0	0.0	0.0	1	1.0653979281161852	-2.0251146046067747	220.0	5	1.11	0.95				
	173	1	0.0	0.0	0.0	0.0	1	1.0653614151095632	-2.0276163469941615	220.0	5	1.11	0.95				
	174	1	0.0	0.0	0.0	0.0	1	1.0508867685611758	-2.7318251634669735	220.0	5	1.11	0.95				
	175	1	0.0	0.0	0.0	0.0	1	1.0508931157127122	-2.7308249863701346	220.0	5	1.11	0.95				
	176	2	0.0	20.0	0.0	0.0	1	1.002272976098778	6.15717064382191	400.0	5	1.05	0.95				
	177	2	0.0	20.0	0.0	0.0	1	1.0022502379049372	6.152779502407872	400.0	5	1.05	0.95				
	178	1	0.0	0.0	0.0	0.0	1	1.0896531283122994	1.0186234499239393	220.0	5	1.11	0.95				
	179	1	0.0	0.0	0.0	0.0	1	1.089668234177529	1.0223207276130968	220.0	5	1.11	0.95				
	180	2	169.925	24.8	0.0	0.0	2	0.9499999901542597	-3.2250303256866983	400.0	6	1.05	0.95				
	181	2	0.0	0.0	0.0	0.0	3	1.0446783314869454	8.48764814530975	220.0	6	1.11	0.95				
	182	2	0.0	0.0	0.0	0.0	5	0.9499999908350109	-2.0742460028483927	400.0	6	1.05	0.95				
	183	1	75.0	0.0	0.0	0.0	3	1.050000010490214	-1.406273822855299	400.0	6	1.05	0.95				
	184	2	158.67	25.15	0.0	0.0	2	1.0343944194395716	2.885904653691681	220.0	6	1.11	0.95				
	185	2	181.215	18.35	0.0	0.0	2	0.9499999901756319	-3.6791097861154793	400.0	6	1.05	0.95				
	186	2	16.665	0.5	0.0	0.0	5	1.0503192220415394	0.44616870678070414	220.0	6	1.11	0.95				
	187	1	3.56	0.75	0.0	0.0	1	1.0568460185955995	-6.257581977225275	110.0	1	1.12	0.95				
	188	1	3.8149999999999995	0.5	0.0	0.0	1	1.0327462695352332	-10.139609154325665	110.0	1	1.12	0.95				
	189	1	4.885	4.35	0.0	0.0	1	1.0157220583478508	-6.3187330644589785	110.0	1	1.12	0.95				
	190	1	3.06	0.75	0.0	0.0	1	1.0434586924340528	0.18640032388096406	110.0	1	1.12	0.95				
	191	1	3.06	0.8	0.0	0.0	1	1.0284591933665268	-3.3145120305303934	110.0	1	1.12	0.95				
	192	2	15.28	6.0	0.0	0.0	1	1.087235415708552	-3.392613662464573	110.0	1	1.12	0.95				
	193	1	7.64	1.5	0.0	0.0	1	1.0872730223774862	-3.4563886728194446	110.0	1	1.12	0.95				
	194	1	0.0	0.0	0.0	0.0	1	1.0860493402348708	-3.6297011446206247	110.0	1	1.12	0.95				
	195	1	4.07	1.0	0.0	0.0	1	1.0498024340116456	-3.6883234551174384	110.0	1	1.12	0.95				
	196	2	3.46	0.75	0.0	0.0	1	1.0577304294994578	-7.409592537137236	110.0	1	1.12	0.95				
	197	1	3.46	0.75	0.0	0.0	1	1.0345516685110419	-4.750884883474589	110.0	1	1.12	0.95				
	198	2	6.16	0.8500000000000001	0.0	0.0	1	1.0542658180860613	-4.311523456834365	110.0	1	1.12	0.95				
	199	1	0.715	0.25	0.0	0.0	1	1.0536312135575097	-2.0936548857462434	110.0	1	1.12	0.95				
	200	1	0.54	0.25	0.0	0.0	1	1.098252263296217	-3.6355181588111116	110.0	1	1.12	0.95				
...
];

%% generator data
%    bus    Pg    Qg    Qmax    Qmin    Vg    mBase    status    Pmax    Pmin    Pc1    Pc2    Qc1min    Qc1max    Qc2min    Qc2max    ramp_agc    ramp_10    ramp_30    ramp_q    apf
mpc.gen = [
	10	-9.952905108137428e-7	-7.796032066820069e-7	120.0	0.0	1.0	168.0	1	400.0	0.0	0.0	0.0	0.0	0.0	0.0	0.0	0.0	0.0	0.0	0.0	0.0				
	16	720.000007195142	-39.9999996730231	440.00000000000006	-40.0	1.0	823.0	1	720.0	0.0	0.0	0.0	0.0	0.0	0.0	0.0	0.0	0.0	0.0	0.0	0.0				
	17	-9.905366043498181e-7	-60.00000007156899	660.0	-60.0	1.0	1234.0	1	1080.0	0.0	0.0	0.0	0.0	0.0	0.0	0.0	0.0	0.0	0.0	0.0	0.0				
	18	-9.966983520478477e-7	-140.0000010855952	1540.0	-140.0	1.0	2879.0	1	2520.0	0.0	0.0	0.0	0.0	0.0	0.0	0.0	0.0	0.0	0.0	0.0	0.0				
	29	-9.97961836245945e-7	-8.747964622218182e-7	240.0	0.0	1.0	511.0	1	400.0	0.0	0.0	0.0	0.0	0.0	0.0	0.0	0.0	0.0	0.0	0.0	0.0				
	30	-9.981421178550995e-7	-8.748448119793774e-7	240.0	0.0	1.0	511.0	1	800.0	0.0	0.0	0.0	0.0	0.0	0.0	0.0	0.0	0.0	0.0	0.0	0.0				
	31	1000.0000099851578	-9.05809761945744e-7	350.0	0.0	1.0	420.0	1	1000.0	0.0	0.0	0.0	0.0	0.0	0.0	0.0	0.0	0.0	0.0	0.0	0.0				
	41	-9.923997145558915e-7	-9.386826321417277e-7	120.0	0.0	1.0	241.0	1	200.0	0.0	0.0	0.0	0.0	0.0	0.0	0.0	0.0	0.0	0.0	0.0	0.0				
	42	-9.9764829090212e-7	-9.386414542782243e-7	120.0	0.0	1.0	241.0	1	409.99999999999994	0.0	0.0	0.0	0.0	0.0	0.0	0.0	0.0	0.0	0.0	0.0	0.0				
	43	410.00000407529205	-9.537709585230106e-7	240.0	0.0	1.0	482.0	1	409.99999999999994	0.0	0.0	0.0	0.0	0.0	0.0	0.0	0.0	0.0	0.0	0.0	0.0				
	44	-9.643944212709296e-7	-9.53805254473512e-7	240.0	0.0	1.0	482.0	1	409.99999999999994	0.0	0.0	0.0	0.0	0.0	0.0	0.0	0.0	0.0	0.0	0.0	0.0				
	45	42.200000998113666	-8.812783989446377e-7	21.0	0.0	1.0	49.0	1	42.2	0.0	0.0	0.0	0.0	0.0	0.0	0.0	0.0	0.0	0.0	0.0	0.0				
	63	650.0000064848018	-6.823857680620136e-8	302.0	0.0	1.0	473.0	1	650.0	0.0	0.0	0.0	0.0	0.0	0.0	0.0	0.0	0.0	0.0	0.0	0.0				
	64	-9.222648671067801e-7	1.9999996595239595	311.0	2.0	1.0	475.0	1	450.0	0.0	0.0	0.0	0.0	0.0	0.0	0.0	0.0	0.0	0.0	0.0	0.0				
	67	558.8226831752874	9.61455117525736e-8	449.0	0.0	1.0	864.0	1	750.0	0.0	0.0	0.0	0.0	0.0	0.0	0.0	0.0	0.0	0.0	0.0	0.0				
	83	225.0000022428479	-88.99866447501941	190.0	-89.0	1.0	239.0	1	225.0	0.0	0.0	0.0	0.0	0.0	0.0	0.0	0.0	0.0	0.0	0.0	0.0				
	84	-9.694972928226622e-7	52.19466549699647	190.0	-89.0	1.0	251.0	1	225.0	0.0	0.0	0.0	0.0	0.0	0.0	0.0	0.0	0.0	0.0	0.0	0.0				
	85	-9.924118004992017e-7	7.045821262413507	125.0	-50.0	1.0	133.0	1	120.0	0.0	0.0	0.0	0.0	0.0	0.0	0.0	0.0	0.0	0.0	0.0	0.0				
	86	-9.962602635648275e-7	-49.99975552526739	125.0	-50.0	1.0	133.0	1	120.0	0.0	0.0	0.0	0.0	0.0	0.0	0.0	0.0	0.0	0.0	0.0	0.0				
	93	-9.907271409372365e-7	4.999999488909657	90.0	5.0	1.0	123.0	1	120.0	0.0	0.0	0.0	0.0	0.0	0.0	0.0	0.0	0.0	0.0	0.0	0.0				
	95	-9.941509567365503e-7	26.99999924981461	68.0	27.0	1.0	105.0	1	110.00000000000001	0.0	0.0	0.0	0.0	0.0	0.0	0.0	0.0	0.0	0.0	0.0	0.0				
	97	87.6000009980167	26.999999185924146	68.0	27.0	1.0	105.0	1	87.6	0.0	0.0	0.0	0.0	0.0	0.0	0.0	0.0	0.0	0.0	0.0	0.0				
	103	-9.977945261392861e-7	-81.99946092604203	177.0	-82.0	1.0	239.0	1	400.0	0.0	0.0	0.0	0.0	0.0	0.0	0.0	0.0	0.0	0.0	0.0	0.0				
	104	-9.940182002950293e-7	23.173441424208114	379.0	-177.0	1.0	490.0	1	225.0	0.0	0.0	0.0	0.0	0.0	0.0	0.0	0.0	0.0	0.0	0.0	0.0				
	105	-9.92779652054107e-7	-165.00000108766255	353.0	-165.0	1.0	502.0	1	430.0	0.0	0.0	0.0	0.0	0.0	0.0	0.0	0.0	0.0	0.0	0.0	0.0				
	109	250.00000249800726	5.185889480481839	65.0	0.0	1.0	277.0	1	250.0	0.0	0.0	0.0	0.0	0.0	0.0	0.0	0.0	0.0	0.0	0.0	0.0				
	110	250.00000249800726	5.076231074937141	65.0	0.0	1.0	280.0	1	250.0	0.0	0.0	0.0	0.0	0.0	0.0	0.0	0.0	0.0	0.0	0.0	0.0				
	111	-9.971158627064213e-7	-2.8693749625853912e-8	270.0	0.0	1.0	401.0	1	360.0	0.0	0.0	0.0	0.0	0.0	0.0	0.0	0.0	0.0	0.0	0.0	0.0				
	123	-9.97924994577311e-7	-3.967259728811098e-7	40.0	0.0	1.0	98.0	1	110.00000000000001	0.0	0.0	0.0	0.0	0.0	0.0	0.0	0.0	0.0	0.0	0.0	0.0				
	124	-8.818807791119164e-7	-3.982050021080138e-7	90.0	0.0	1.0	132.0	1	125.0	0.0	0.0	0.0	0.0	0.0	0.0	0.0	0.0	0.0	0.0	0.0	0.0				
	125	-9.982704910368307e-7	2.4352198921721846e-6	360.0	0.0	1.0	654.0	1	860.0	0.0	0.0	0.0	0.0	0.0	0.0	0.0	0.0	0.0	0.0	0.0	0.0				
	127	530.7370424045106	-3.610516557225468e-7	360.0	0.0	1.0	540.0	1	690.0	0.0	0.0	0.0	0.0	0.0	0.0	0.0	0.0	0.0	0.0	0.0	0.0				
	131	-9.976066500415514e-7	7.089723761340371e-7	360.0	0.0	1.0	696.0	1	1060.0	0.0	0.0	0.0	0.0	0.0	0.0	0.0	0.0	0.0	0.0	0.0	0.0				
	132	-9.97957759181556e-7	7.056663695564766e-7	480.0	0.0	1.0	732.0	1	600.0	0.0	0.0	0.0	0.0	0.0	0.0	0.0	0.0	0.0	0.0	0.0	0.0				
	139	-9.975843119860695e-7	-4.1883301984204053e-7	360.0	0.0	1.0	714.0	1	600.0	0.0	0.0	0.0	0.0	0.0	0.0	0.0	0.0	0.0	0.0	0.0	0.0				
	140	-9.88615532305059e-7	-4.1828080914563475e-7	120.0	0.0	1.0	240.0	1	200.0	0.0	0.0	0.0	0.0	0.0	0.0	0.0	0.0	0.0	0.0	0.0	0.0				
	176	600.000005998063	-119.99959449826818	220.00000000000003	-120.0	1.0	430.0	1	600.0	0.0	0.0	0.0	0.0	0.0	0.0	0.0	0.0	0.0	0.0	0.0	0.0				
	177	200.0000019980629	-88.62570616000214	220.00000000000003	-120.0	1.0	430.0	1	200.0	0.0	0.0	0.0	0.0	0.0	0.0	0.0	0.0	0.0	0.0	0.0	0.0				
	180	0.0	-33.99053615121505	99999.0	-99999.0	1.0	7485.0	1	0.0	0.0	0.0	0.0	0.0	0.0	0.0	0.0	0.0	0.0	0.0	0.0	0.0				
	181	175.00000174800772	-31.959007903917012	99999.0	-99999.0	1.0	210.0	1	175.0	0.0	0.0	0.0	0.0	0.0	0.0	0.0	0.0	0.0	0.0	0.0	0.0				
	182	307.59000307402044	-57.03772349375406	99999.0	-99999.0	1.0	13465.0	1	307.59	0.0	0.0	0.0	0.0	0.0	0.0	0.0	0.0	0.0	0.0	0.0	0.0				
	184	0.0	25.864532696482822	99999.0	-99999.0	1.0	8353.0	1	0.0	0.0	0.0	0.0	0.0	0.0	0.0	0.0	0.0	0.0	0.0	0.0	0.0				
	185	0.0	-30.55062252866859	99999.0	-99999.0	1.0	14254.0	1	0.0	0.0	0.0	0.0	0.0	0.0	0.0	0.0	0.0	0.0	0.0	0.0	0.0				
	186	0.0	-42.23299953685911	99999.0	-99999.0	1.0	7401.0	1	0.0	0.0	0.0	0.0	0.0	0.0	0.0	0.0	0.0	0.0	0.0	0.0	0.0				
	192	95.00000099810727	-8.642323360590974e-7	50.0	0.0	1.0	114.0	1	95.0	0.0	0.0	0.0	0.0	0.0	0.0	0.0	0.0	0.0	0.0	0.0	0.0				
	196	0.9000009981977244	1.0000007835453015	1.0	0.0	1.0	1.0	1	0.9000000000000001	0.0	0.0	0.0	0.0	0.0	0.0	0.0	0.0	0.0	0.0	0.0	0.0				
	198	0.8000009981405614	-6.10087357703193e-7	1.0	0.0	1.0	1.0	1	0.8	0.0	0.0	0.0	0.0	0.0	0.0	0.0	0.0	0.0	0.0	0.0	0.0				
	205	15.000000998108549	8.68447548976202e-6	10.0	0.0	1.0	18.0	1	15.0	0.0	0.0	0.0	0.0	0.0	0.0	0.0	0.0	0.0	0.0	0.0	0.0				
	213	11.000000998163182	-2.3388579939729913e-7	8.0	0.0	1.0	13.0	1	11.0	0.0	0.0	0.0	0.0	0.0	0.0	0.0	0.0	0.0	0.0	0.0	0.0				
	264	2.5000009981664193	-6.414516386738962e-7	2.0	0.0	1.0	3.0	1	2.5	0.0	0.0	0.0	0.0	0.0	0.0	0.0	0.0	0.0	0.0	0.0	0.0				
	269	6.00000099813792	-8.541946278137538e-7	5.0	0.0	1.0	7.0	1	6.0	0.0	0.0	0.0	0.0	0.0	0.0	0.0	0.0	0.0	0.0	0.0	0.0				
	277	70.0000009981051	12.55123983963718	42.0	0.0	1.0	84.0	1	70.0	0.0	0.0	0.0	0.0	0.0	0.0	0.0	0.0	0.0	0.0	0.0	0.0				
	278	60.00000099811133	7.670177767129029e-7	40.0	0.0	1.0	72.0	1	60.0	0.0	0.0	0.0	0.0	0.0	0.0	0.0	0.0	0.0	0.0	0.0	0.0				
	279	60.000000998101285	6.485068890932489	40.0	0.0	1.0	72.0	1	60.0	0.0	0.0	0.0	0.0	0.0	0.0	0.0	0.0	0.0	0.0	0.0	0.0				
	281	120.00000119809786	4.006814902364529	90.0	0.0	1.0	144.0	1	120.0	0.0	0.0	0.0	0.0	0.0	0.0	0.0	0.0	0.0	0.0	0.0	0.0				
	282	40.00000099810803	1.4999571733145212	40.0	0.0	1.0	48.0	1	40.0	0.0	0.0	0.0	0.0	0.0	0.0	0.0	0.0	0.0	0.0	0.0	0.0				
	289	2.500000998102401	2.999990922341381	3.0	0.0	1.0	3.0	1	2.5	0.0	0.0	0.0	0.0	0.0	0.0	0.0	0.0	0.0	0.0	0.0	0.0				
	294	2.000000998185808	-7.859448533154875e-7	1.0	0.0	1.0	2.0	1	2.0	0.0	0.0	0.0	0.0	0.0	0.0	0.0	0.0	0.0	0.0	0.0	0.0				
	314	1.500000998181319	-6.002241050015683e-7	1.0	0.0	1.0	2.0	1	1.5	0.0	0.0	0.0	0.0	0.0	0.0	0.0	0.0	0.0	0.0	0.0	0.0				
	328	44.000000998103005	-8.28090099574954e-7	21.0	0.0	1.0	53.0	1	44.0	0.0	0.0	0.0	0.0	0.0	0.0	0.0	0.0	0.0	0.0	0.0	0.0				
	329	44.00000099811775	1.217320002517319	21.0	0.0	1.0	53.0	1	44.0	0.0	0.0	0.0	0.0	0.0	0.0	0.0	0.0	0.0	0.0	0.0	0.0				
	330	44.000000998099225	-8.77235846234666e-7	21.0	0.0	1.0	53.0	1	44.0	0.0	0.0	0.0	0.0	0.0	0.0	0.0	0.0	0.0	0.0	0.0	0.0				
	331	43.00000099812481	-5.725686482816927e-7	21.0	0.0	1.0	52.0	1	43.0	0.0	0.0	0.0	0.0	0.0	0.0	0.0	0.0	0.0	0.0	0.0	0.0				
	334	1.5000009981667535	-8.541463894013679e-7	1.0	0.0	1.0	2.0	1	1.5	0.0	0.0	0.0	0.0	0.0	0.0	0.0	0.0	0.0	0.0	0.0	0.0				
	346	-9.968694743204317e-7	-7.001603415162589e-7	120.0	0.0	1.0	180.0	1	200.0	0.0	0.0	0.0	0.0	0.0	0.0	0.0	0.0	0.0	0.0	0.0	0.0				
	347	10.000000998176656	-8.190097728858103e-7	15.0	0.0	1.0	12.0	1	10.0	0.0	0.0	0.0	0.0	0.0	0.0	0.0	0.0	0.0	0.0	0.0	0.0				
	359	1.5000009981345561	-6.073422401321545e-7	1.0	0.0	1.0	2.0	1	1.5	0.0	0.0	0.0	0.0	0.0	0.0	0.0	0.0	0.0	0.0	0.0	0.0				
	365	5.100000998119627	-6.534705788713417e-7	3.0	0.0	1.0	6.0	1	5.1	0.0	0.0	0.0	0.0	0.0	0.0	0.0	0.0	0.0	0.0	0.0	0.0				
	382	8.000000998129439	1.6044332066223573e-6	5.0	0.0	1.0	10.0	1	8.0	0.0	0.0	0.0	0.0	0.0	0.0	0.0	0.0	0.0	0.0	0.0	0.0				
	383	8.000000998132105	2.764106300213571e-7	5.0	0.0	1.0	10.0	1	8.0	0.0	0.0	0.0	0.0	0.0	0.0	0.0	0.0	0.0	0.0	0.0	0.0				
	385	6.0000009981436815	-2.6083271366409954e-7	4.0	0.0	1.0	7.0	1	6.0	0.0	0.0	0.0	0.0	0.0	0.0	0.0	0.0	0.0	0.0	0.0	0.0				
	390	4.500000998130392	2.3471482384379563	3.0	0.0	1.0	5.0	1	4.5	0.0	0.0	0.0	0.0	0.0	0.0	0.0	0.0	0.0	0.0	0.0	0.0				
	395	10.00000099813886	-8.683056437632368e-7	8.0	0.0	1.0	12.0	1	10.0	0.0	0.0	0.0	0.0	0.0	0.0	0.0	0.0	0.0	0.0	0.0	0.0				
	404	3.000000998143449	2.999999483254427	3.0	0.0	1.0	4.0	1	3.0	0.0	0.0	0.0	0.0	0.0	0.0	0.0	0.0	0.0	0.0	0.0	0.0				
	426	3.2000009981993602	-7.807812203173547e-7	2.0	0.0	1.0	4.0	1	3.2	0.0	0.0	0.0	0.0	0.0	0.0	0.0	0.0	0.0	0.0	0.0	0.0				
	444	1.0000009981415614	-5.981777306567185e-7	1.0	0.0	1.0	1.0	1	1.0	0.0	0.0	0.0	0.0	0.0	0.0	0.0	0.0	0.0	0.0	0.0	0.0				
	451	4.500000998122576	-5.754462584566399e-7	3.0	0.0	1.0	5.0	1	4.5	0.0	0.0	0.0	0.0	0.0	0.0	0.0	0.0	0.0	0.0	0.0	0.0				
	482	1.0000009981254103	-6.109044686853022e-7	1.0	0.0	1.0	1.0	1	1.0	0.0	0.0	0.0	0.0	0.0	0.0	0.0	0.0	0.0	0.0	0.0	0.0				
	492	2.000000998133209	-7.768647017876334e-7	1.0	0.0	1.0	2.0	1	2.0	0.0	0.0	0.0	0.0	0.0	0.0	0.0	0.0	0.0	0.0	0.0	0.0				
	493	234.00000233808188	-5.942440918820916e-7	130.0	0.0	1.0	281.0	1	234.0	0.0	0.0	0.0	0.0	0.0	0.0	0.0	0.0	0.0	0.0	0.0	0.0				
	494	234.00000233807415	27.253140628681745	130.0	0.0	1.0	281.0	1	234.0	0.0	0.0	0.0	0.0	0.0	0.0	0.0	0.0	0.0	0.0	0.0	0.0				
	514	115.00000114812572	8.240135514261627e-6	90.0	0.0	1.0	138.0	1	114.99999999999999	0.0	0.0	0.0	0.0	0.0	0.0	0.0	0.0	0.0	0.0	0.0	0.0				
	515	115.00000114812565	9.834600981248277	90.0	0.0	1.0	138.0	1	114.99999999999999	0.0	0.0	0.0	0.0	0.0	0.0	0.0	0.0	0.0	0.0	0.0	0.0				
	525	6.000000998155843	0.5698376045284042	4.0	0.0	1.0	7.0	1	6.0	0.0	0.0	0.0	0.0	0.0	0.0	0.0	0.0	0.0	0.0	0.0	0.0				
	536	6.000000998159334	-2.3448823048435024e-7	6.0	0.0	1.0	7.0	1	6.0	0.0	0.0	0.0	0.0	0.0	0.0	0.0	0.0	0.0	0.0	0.0	0.0				
	537	3.500000998169134	-6.317644502866721e-7	3.0	0.0	1.0	4.0	1	3.5000000000000004	0.0	0.0	0.0	0.0	0.0	0.0	0.0	0.0	0.0	0.0	0.0	0.0				
	556	2.70000099814144	-9.173553532898417e-7	1.0	0.0	1.0	3.0	1	2.7	0.0	0.0	0.0	0.0	0.0	0.0	0.0	0.0	0.0	0.0	0.0	0.0				
	580	1.600000998108923	-9.106219050285722e-7	1.0	0.0	1.0	2.0	1	1.6	0.0	0.0	0.0	0.0	0.0	0.0	0.0	0.0	0.0	0.0	0.0	0.0				
	584	2.700000998105493	-8.430219175074738e-7	2.0	0.0	1.0	3.0	1	2.7	0.0	0.0	0.0	0.0	0.0	0.0	0.0	0.0	0.0	0.0	0.0	0.0				
	585	4.000000998104925	-8.428635993467705e-7	2.0	0.0	1.0	5.0	1	4.0	0.0	0.0	0.0	0.0	0.0	0.0	0.0	0.0	0.0	0.0	0.0	0.0				
	607	0.800000998121426	0.0	0.0	0.0	1.0	1.0	1	0.8	0.0	0.0	0.0	0.0	0.0	0.0	0.0	0.0	0.0	0.0	0.0	0.0				
	612	-9.974040609995665e-7	-7.274833468348434e-7	120.0	0.0	1.0	256.0	1	200.0	0.0	0.0	0.0	0.0	0.0	0.0	0.0	0.0	0.0	0.0	0.0	0.0				
	613	-9.96556326761513e-7	-7.276124978036975e-7	120.0	0.0	1.0	256.0	1	200.0	0.0	0.0	0.0	0.0	0.0	0.0	0.0	0.0	0.0	0.0	0.0	0.0				
	615	1.4000009981266275	-8.890291240784192e-7	1.0	0.0	1.0	2.0	1	1.4	0.0	0.0	0.0	0.0	0.0	0.0	0.0	0.0	0.0	0.0	0.0	0.0				
	623	7.60000099811627	-8.710477829853041e-7	5.0	0.0	1.0	9.0	1	7.6	0.0	0.0	0.0	0.0	0.0	0.0	0.0	0.0	0.0	0.0	0.0	0.0				
	639	9.60000099811138	-9.088857763731307e-7	4.0	0.0	1.0	12.0	1	9.6	0.0	0.0	0.0	0.0	0.0	0.0	0.0	0.0	0.0	0.0	0.0	0.0				
	651	4.7000009981211965	-9.06552851561857e-7	2.0	0.0	1.0	6.0	1	4.7	0.0	0.0	0.0	0.0	0.0	0.0	0.0	0.0	0.0	0.0	0.0	0.0				
	654	1.4000009981193764	-9.388283504272508e-7	1.0	0.0	1.0	2.0	1	1.4	0.0	0.0	0.0	0.0	0.0	0.0	0.0	0.0	0.0	0.0	0.0	0.0				
	664	6.200000998122353	-9.174914930659635e-7	6.0	0.0	1.0	7.0	1	6.2	0.0	0.0	0.0	0.0	0.0	0.0	0.0	0.0	0.0	0.0	0.0	0.0				
	670	2.700000998123217	-9.564776731943128e-7	2.0	0.0	1.0	3.0	1	2.7	0.0	0.0	0.0	0.0	0.0	0.0	0.0	0.0	0.0	0.0	0.0	0.0				
	674	1.0000009981418148	0.0	0.0	0.0	1.0	1.0	1	1.0	0.0	0.0	0.0	0.0	0.0	0.0	0.0	0.0	0.0	0.0	0.0	0.0				
	688	-9.973964650225996e-7	-9.230491661147535e-7	120.0	0.0	1.0	242.0	1	202.0	0.0	0.0	0.0	0.0	0.0	0.0	0.0	0.0	0.0	0.0	0.0	0.0				
	692	1.4000009981380879	-8.328825164045027e-7	1.0	0.0	1.0	2.0	1	1.4	0.0	0.0	0.0	0.0	0.0	0.0	0.0	0.0	0.0	0.0	0.0	0.0				
	699	3.800000998116925	-9.57153891895645e-7	2.0	0.0	1.0	5.0	1	3.8	0.0	0.0	0.0	0.0	0.0	0.0	0.0	0.0	0.0	0.0	0.0	0.0				
	712	1.2000009981203945	-8.820799846441424e-7	1.0	0.0	1.0	1.0	1	1.2	0.0	0.0	0.0	0.0	0.0	0.0	0.0	0.0	0.0	0.0	0.0	0.0				
	730	6.900000998107185	-9.581392057992334e-7	3.0	0.0	1.0	8.0	1	6.9	0.0	0.0	0.0	0.0	0.0	0.0	0.0	0.0	0.0	0.0	0.0	0.0				
	732	1.100000998138259	-9.46590348672096e-7	1.0	0.0	1.0	1.0	1	1.1	0.0	0.0	0.0	0.0	0.0	0.0	0.0	0.0	0.0	0.0	0.0	0.0				
	735	4.100000998113861	-9.065887842040944e-7	2.0	0.0	1.0	5.0	1	4.1	0.0	0.0	0.0	0.0	0.0	0.0	0.0	0.0	0.0	0.0	0.0	0.0				
	740	4.00000099805137	-9.628126411051229e-7	1.0	0.0	1.0	5.0	1	4.0	0.0	0.0	0.0	0.0	0.0	0.0	0.0	0.0	0.0	0.0	0.0	0.0				
	744	134.00000133800364	-9.58828008022486e-7	60.0	0.0	1.0	161.0	1	134.0	0.0	0.0	0.0	0.0	0.0	0.0	0.0	0.0	0.0	0.0	0.0	0.0				
	754	-9.915707964309042e-7	-9.358453215214718e-7	30.0	0.0	1.0	54.0	1	80.0	0.0	0.0	0.0	0.0	0.0	0.0	0.0	0.0	0.0	0.0	0.0	0.0				
	755	-9.977275195172555e-7	-9.316187800333108e-7	80.0	0.0	1.0	110.0	1	250.0	0.0	0.0	0.0	0.0	0.0	0.0	0.0	0.0	0.0	0.0	0.0	0.0				
	760	3.1000009981100334	-8.810373958115141e-7	2.0	0.0	1.0	4.0	1	3.1	0.0	0.0	0.0	0.0	0.0	0.0	0.0	0.0	0.0	0.0	0.0	0.0				
	766	2.1000009981021166	-8.49885847174962e-7	1.0	0.0	1.0	3.0	1	2.1	0.0	0.0	0.0	0.0	0.0	0.0	0.0	0.0	0.0	0.0	0.0	0.0				
	784	0.7000009981396528	0.0	0.0	0.0	1.0	1.0	1	0.7	0.0	0.0	0.0	0.0	0.0	0.0	0.0	0.0	0.0	0.0	0.0	0.0				
	790	49.80000099809462	35.0	35.0	35.0	1.0	60.0	1	49.8	0.0	0.0	0.0	0.0	0.0	0.0	0.0	0.0	0.0	0.0	0.0	0.0				
	795	1.8900009980453603	1.0	1.0	1.0	1.0	2.0	1	1.8900000000000001	0.0	0.0	0.0	0.0	0.0	0.0	0.0	0.0	0.0	0.0	0.0	0.0				
	798	2.9900009980847457	3.0	3.0	3.0	1.0	4.0	1	2.99	0.0	0.0	0.0	0.0	0.0	0.0	0.0	0.0	0.0	0.0	0.0	0.0				
	814	44.9200009980431	8.035007931355471	42.0	0.0	1.0	54.0	1	44.92	0.0	0.0	0.0	0.0	0.0	0.0	0.0	0.0	0.0	0.0	0.0	0.0				
	834	-9.951524050119972e-7	27.890223602581337	83.0	0.0	1.0	110.0	1	55.00000000000001	0.0	0.0	0.0	0.0	0.0	0.0	0.0	0.0	0.0	0.0	0.0	0.0				
	878	2.990000998073346	0.0	0.0	0.0	1.0	4.0	1	2.99	0.0	0.0	0.0	0.0	0.0	0.0	0.0	0.0	0.0	0.0	0.0	0.0				
	884	2.490000998097478	0.0	0.0	0.0	1.0	3.0	1	2.49	0.0	0.0	0.0	0.0	0.0	0.0	0.0	0.0	0.0	0.0	0.0	0.0				
	892	31.870000998101304	6.835362334031409	42.0	6.0	1.0	38.0	1	31.869999999999997	0.0	0.0	0.0	0.0	0.0	0.0	0.0	0.0	0.0	0.0	0.0	0.0				
	895	8.96000099810111	7.000000000000001	7.000000000000001	7.000000000000001	1.0	11.0	1	8.96	0.0	0.0	0.0	0.0	0.0	0.0	0.0	0.0	0.0	0.0	0.0	0.0				
	901	3.6800009980421433	2.0	2.0	2.0	1.0	4.0	1	3.6799999999999997	0.0	0.0	0.0	0.0	0.0	0.0	0.0	0.0	0.0	0.0	0.0	0.0				
	910	4.580000998046557	3.0	3.0	3.0	1.0	6.0	1	4.58	0.0	0.0	0.0	0.0	0.0	0.0	0.0	0.0	0.0	0.0	0.0	0.0				
	911	-9.743613124630858e-7	8.973658605374496	224.00000000000003	0.0	1.0	415.0	1	370.0	0.0	0.0	0.0	0.0	0.0	0.0	0.0	0.0	0.0	0.0	0.0	0.0				
	912	-9.967673094525524e-7	11.198126288399418	224.00000000000003	0.0	1.0	415.0	1	370.0	0.0	0.0	0.0	0.0	0.0	0.0	0.0	0.0	0.0	0.0	0.0	0.0				
	914	15.930000998091609	10.0	10.0	10.0	1.0	19.0	1	15.93	0.0	0.0	0.0	0.0	0.0	0.0	0.0	0.0	0.0	0.0	0.0	0.0				
	917	2.090000998083588	0.0	0.0	0.0	1.0	3.0	1	2.09	0.0	0.0	0.0	0.0	0.0	0.0	0.0	0.0	0.0	0.0	0.0	0.0				
	919	21.910000997903676	12.0	12.0	12.0	1.0	26.0	1	21.91	0.0	0.0	0.0	0.0	0.0	0.0	0.0	0.0	0.0	0.0	0.0	0.0				
	920	1.9900009980189783	0.0	0.0	0.0	1.0	2.0	1	1.9900000000000002	0.0	0.0	0.0	0.0	0.0	0.0	0.0	0.0	0.0	0.0	0.0	0.0				
	929	63.73000099801664	28.999999583467556	50.0	28.999999999999996	1.0	77.0	1	63.73	0.0	0.0	0.0	0.0	0.0	0.0	0.0	0.0	0.0	0.0	0.0	0.0				
	959	2.4900009981126177	1.0	1.0	1.0	1.0	3.0	1	2.49	0.0	0.0	0.0	0.0	0.0	0.0	0.0	0.0	0.0	0.0	0.0	0.0				
	968	0.7000009981461289	0.0	0.0	0.0	1.0	1.0	1	0.7	0.0	0.0	0.0	0.0	0.0	0.0	0.0	0.0	0.0	0.0	0.0	0.0				
	993	3.9800009981665116	1.0	1.0	1.0	1.0	5.0	1	3.9800000000000004	0.0	0.0	0.0	0.0	0.0	0.0	0.0	0.0	0.0	0.0	0.0	0.0				
	994	1.9900009981665123	1.0	1.0	1.0	1.0	2.0	1	1.9900000000000002	0.0	0.0	0.0	0.0	0.0	0.0	0.0	0.0	0.0	0.0	0.0	0.0				
	995	-9.976134099096037e-7	24.177041189652584	38.0	0.0	1.0	60.0	1	100.0	0.0	0.0	0.0	0.0	0.0	0.0	0.0	0.0	0.0	0.0	0.0	0.0				
	996	-9.972776842458813e-7	13.267547090962156	38.0	0.0	1.0	60.0	1	50.0	0.0	0.0	0.0	0.0	0.0	0.0	0.0	0.0	0.0	0.0	0.0	0.0				
	997	-9.976251384925328e-7	14.305328077039759	38.0	0.0	1.0	60.0	1	50.0	0.0	0.0	0.0	0.0	0.0	0.0	0.0	0.0	0.0	0.0	0.0	0.0				
	1004	4.280000998110075	3.0	3.0	3.0	1.0	5.0	1	4.28	0.0	0.0	0.0	0.0	0.0	0.0	0.0	0.0	0.0	0.0	0.0	0.0				
	1024	0.10000099813292346	0.0	0.0	0.0	1.0	0.0	1	0.1	0.0	0.0	0.0	0.0	0.0	0.0	0.0	0.0	0.0	0.0	0.0	0.0				
	1027	24.900000998057735	13.0	13.0	13.0	1.0	30.0	1	24.9	0.0	0.0	0.0	0.0	0.0	0.0	0.0	0.0	0.0	0.0	0.0	0.0				
	1028	2.990000998058702	3.0	3.0	3.0	1.0	4.0	1	2.99	0.0	0.0	0.0	0.0	0.0	0.0	0.0	0.0	0.0	0.0	0.0	0.0				
	1029	24.900000998058488	14.000000000000002	14.000000000000002	14.000000000000002	1.0	30.0	1	24.9	0.0	0.0	0.0	0.0	0.0	0.0	0.0	0.0	0.0	0.0	0.0	0.0				
	1053	59.760000998046934	10.452000551733832	53.0	0.0	1.0	72.0	1	59.760000000000005	0.0	0.0	0.0	0.0	0.0	0.0	0.0	0.0	0.0	0.0	0.0	0.0				
	1054	29.880000998088313	23.992565645464627	31.0	0.0	1.0	36.0	1	29.880000000000003	0.0	0.0	0.0	0.0	0.0	0.0	0.0	0.0	0.0	0.0	0.0	0.0				
	1105	7.9700009980966176	10.0	10.0	10.0	1.0	10.0	1	7.969999999999999	0.0	0.0	0.0	0.0	0.0	0.0	0.0	0.0	0.0	0.0	0.0	0.0				
	1106	22.91000099809693	13.0	13.0	13.0	1.0	28.0	1	22.91	0.0	0.0	0.0	0.0	0.0	0.0	0.0	0.0	0.0	0.0	0.0	0.0				
	1107	10.560000998039552	3.0	3.0	3.0	1.0	13.0	1	10.56	0.0	0.0	0.0	0.0	0.0	0.0	0.0	0.0	0.0	0.0	0.0	0.0				
	1138	44.820000998025144	17.04488643171641	41.0	0.0	1.0	54.0	1	44.82	0.0	0.0	0.0	0.0	0.0	0.0	0.0	0.0	0.0	0.0	0.0	0.0				
	1140	-9.685642587830105e-7	27.43723983256331	199.0	-87.0	1.0	252.0	1	229.99999999999997	0.0	0.0	0.0	0.0	0.0	0.0	0.0	0.0	0.0	0.0	0.0	0.0				
	1141	-9.970708550575442e-7	40.65552935335209	190.0	-89.0	1.0	251.0	1	225.0	0.0	0.0	0.0	0.0	0.0	0.0	0.0	0.0	0.0	0.0	0.0	0.0				
	1175	37.84000099811541	20.0	20.0	20.0	1.0	45.0	1	37.84	0.0	0.0	0.0	0.0	0.0	0.0	0.0	0.0	0.0	0.0	0.0	0.0				
	1182	-9.978335655244634e-7	-7.53766938172401	125.0	-50.0	1.0	133.0	1	120.0	0.0	0.0	0.0	0.0	0.0	0.0	0.0	0.0	0.0	0.0	0.0	0.0				
	1183	120.0000011873245	-14.868792804892278	125.0	-50.0	1.0	133.0	1	120.0	0.0	0.0	0.0	0.0	0.0	0.0	0.0	0.0	0.0	0.0	0.0	0.0				
	1184	-9.97091369847346e-7	52.009907529069785	125.0	-50.0	1.0	133.0	1	120.0	0.0	0.0	0.0	0.0	0.0	0.0	0.0	0.0	0.0	0.0	0.0	0.0				
	1191	106.56000106367338	11.692912946607246	129.0	-47.0	1.0	128.0	1	106.56000000000002	0.0	0.0	0.0	0.0	0.0	0.0	0.0	0.0	0.0	0.0	0.0	0.0				
	1192	250.0000024914468	52.21194558560249	125.0	-50.0	1.0	123.0	1	250.0	0.0	0.0	0.0	0.0	0.0	0.0	0.0	0.0	0.0	0.0	0.0	0.0				
	1201	99.5900009980448	1.3951629934351002e-7	90.0	0.0	1.0	120.0	1	99.59	0.0	0.0	0.0	0.0	0.0	0.0	0.0	0.0	0.0	0.0	0.0	0.0				
	1202	99.5900009980448	1.396172060975513e-7	90.0	0.0	1.0	120.0	1	99.59	0.0	0.0	0.0	0.0	0.0	0.0	0.0	0.0	0.0	0.0	0.0	0.0				
	1203	99.59000099805522	-3.4231603808758356e-7	90.0	0.0	1.0	120.0	1	99.59	0.0	0.0	0.0	0.0	0.0	0.0	0.0	0.0	0.0	0.0	0.0	0.0				
	1232	51.79000099809474	4.283519310714243e-7	41.0	0.0	1.0	62.0	1	51.790000000000006	0.0	0.0	0.0	0.0	0.0	0.0	0.0	0.0	0.0	0.0	0.0	0.0				
	1233	14.940000998109031	6.474977275473688e-7	41.0	0.0	1.0	18.0	1	14.940000000000001	0.0	0.0	0.0	0.0	0.0	0.0	0.0	0.0	0.0	0.0	0.0	0.0				
	1244	18.920000998090885	20.0	20.0	20.0	1.0	23.0	1	18.92	0.0	0.0	0.0	0.0	0.0	0.0	0.0	0.0	0.0	0.0	0.0	0.0				
	1247	15.930000998101463	12.0	12.0	12.0	1.0	19.0	1	15.93	0.0	0.0	0.0	0.0	0.0	0.0	0.0	0.0	0.0	0.0	0.0	0.0				
	1250	197.19000196994511	30.325712008068045	151.0	0.0	1.0	237.0	1	197.19	0.0	0.0	0.0	0.0	0.0	0.0	0.0	0.0	0.0	0.0	0.0	0.0				
	1268	0.5000009980965343	0.0	0.0	0.0	1.0	1.0	1	0.5	0.0	0.0	0.0	0.0	0.0	0.0	0.0	0.0	0.0	0.0	0.0	0.0				
	1316	1.00000099811886	0.0	0.0	0.0	1.0	1.0	1	1.0	0.0	0.0	0.0	0.0	0.0	0.0	0.0	0.0	0.0	0.0	0.0	0.0				
	1325	1.3900009980587487	0.0	0.0	0.0	1.0	2.0	1	1.39	0.0	0.0	0.0	0.0	0.0	0.0	0.0	0.0	0.0	0.0	0.0	0.0				
	1349	1.4900009982051348	0.0	0.0	0.0	1.0	2.0	1	1.49	0.0	0.0	0.0	0.0	0.0	0.0	0.0	0.0	0.0	0.0	0.0	0.0				
	1356	1.000000998101927	2.0	2.0	2.0	1.0	1.0	1	1.0	0.0	0.0	0.0	0.0	0.0	0.0	0.0	0.0	0.0	0.0	0.0	0.0				
	1359	0.8000009981203556	1.0	1.0	1.0	1.0	1.0	1	0.8	0.0	0.0	0.0	0.0	0.0	0.0	0.0	0.0	0.0	0.0	0.0	0.0				
	1393	12.750000998103445	-9.423847647092163e-7	11.0	0.0	1.0	15.0	1	12.75	0.0	0.0	0.0	0.0	0.0	0.0	0.0	0.0	0.0	0.0	0.0	0.0				
	1403	4.280000998051615	1.0	1.0	1.0	1.0	5.0	1	4.28	0.0	0.0	0.0	0.0	0.0	0.0	0.0	0.0	0.0	0.0	0.0	0.0				
	1416	339.29847492184723	23.51721080353143	180.0	10.0	1.0	246.0	1	371.0	0.0	0.0	0.0	0.0	0.0	0.0	0.0	0.0	0.0	0.0	0.0	0.0				
	1417	-9.953863606272125e-7	6.094974687597785	120.0	5.0	1.0	123.0	1	120.0	0.0	0.0	0.0	0.0	0.0	0.0	0.0	0.0	0.0	0.0	0.0	0.0				
	1418	-9.962958399912288e-7	4.9999994768749225	90.0	5.0	1.0	123.0	1	20.0	0.0	0.0	0.0	0.0	0.0	0.0	0.0	0.0	0.0	0.0	0.0	0.0				
	1426	-9.95968666939142e-7	26.999999263983565	68.0	27.0	1.0	106.0	1	495.0	0.0	0.0	0.0	0.0	0.0	0.0	0.0	0.0	0.0	0.0	0.0	0.0				
	1429	0.2000009980950322	0.0	0.0	0.0	1.0	0.0	1	0.2	0.0	0.0	0.0	0.0	0.0	0.0	0.0	0.0	0.0	0.0	0.0	0.0				
	1469	0.6000009981161031	0.0	0.0	0.0	1.0	1.0	1	0.6	0.0	0.0	0.0	0.0	0.0	0.0	0.0	0.0	0.0	0.0	0.0	0.0				
	1475	2.0900009980820933	2.0	2.0	2.0	1.0	3.0	1	2.09	0.0	0.0	0.0	0.0	0.0	0.0	0.0	0.0	0.0	0.0	0.0	0.0				
	1504	31.170000998099617	2.0	2.0	2.0	1.0	37.0	1	31.17	0.0	0.0	0.0	0.0	0.0	0.0	0.0	0.0	0.0	0.0	0.0	0.0				
	1505	48.8000009980903	4.0	4.0	4.0	1.0	59.0	1	48.8	0.0	0.0	0.0	0.0	0.0	0.0	0.0	0.0	0.0	0.0	0.0	0.0				
	1514	2.290000997573965	1.0	1.0	1.0	1.0	3.0	1	2.29	0.0	0.0	0.0	0.0	0.0	0.0	0.0	0.0	0.0	0.0	0.0	0.0				
	1534	0.3000009980781996	0.0	0.0	0.0	1.0	0.0	1	0.3	0.0	0.0	0.0	0.0	0.0	0.0	0.0	0.0	0.0	0.0	0.0	0.0				
	1536	-9.974995650015767e-7	31.913654236079136	190.0	-89.0	1.0	251.0	1	225.0	0.0	0.0	0.0	0.0	0.0	0.0	0.0	0.0	0.0	0.0	0.0	0.0				
	1537	225.00000223558322	32.13289733299683	202.99999999999997	-95.0	1.0	255.0	1	225.0	0.0	0.0	0.0	0.0	0.0	0.0	0.0	0.0	0.0	0.0	0.0	0.0				
	1538	-9.75304410179148e-7	20.9696875751641	190.0	-89.0	1.0	255.0	1	215.0	0.0	0.0	0.0	0.0	0.0	0.0	0.0	0.0	0.0	0.0	0.0	0.0				
	1542	8.960000998089777	3.0	3.0	3.0	1.0	11.0	1	8.96	0.0	0.0	0.0	0.0	0.0	0.0	0.0	0.0	0.0	0.0	0.0	0.0				
	1543	1.2000009980859907	0.0	0.0	0.0	1.0	1.0	1	1.2	0.0	0.0	0.0	0.0	0.0	0.0	0.0	0.0	0.0	0.0	0.0	0.0				
	1550	1.7900009980783413	1.0	1.0	1.0	1.0	2.0	1	1.79	0.0	0.0	0.0	0.0	0.0	0.0	0.0	0.0	0.0	0.0	0.0	0.0				
	1566	54.77000099808751	20.000000048246182	47.0	20.0	1.0	66.0	1	54.77000000000001	0.0	0.0	0.0	0.0	0.0	0.0	0.0	0.0	0.0	0.0	0.0	0.0				
	1587	63.74000099808642	27.0	27.0	27.0	1.0	77.0	1	63.739999999999995	0.0	0.0	0.0	0.0	0.0	0.0	0.0	0.0	0.0	0.0	0.0	0.0				
	1600	17.43000099803689	3.0	3.0	3.0	1.0	21.0	1	17.43	0.0	0.0	0.0	0.0	0.0	0.0	0.0	0.0	0.0	0.0	0.0	0.0				
	1602	-9.9656546362782e-7	4.7947076978661665	90.0	0.0	1.0	144.0	1	120.0	0.0	0.0	0.0	0.0	0.0	0.0	0.0	0.0	0.0	0.0	0.0	0.0				
	1603	-9.938135707519673e-7	21.84430256351754	90.0	0.0	1.0	144.0	1	120.0	0.0	0.0	0.0	0.0	0.0	0.0	0.0	0.0	0.0	0.0	0.0	0.0				
	1609	0.3000009981745275	0.0	0.0	0.0	1.0	0.0	1	0.3	0.0	0.0	0.0	0.0	0.0	0.0	0.0	0.0	0.0	0.0	0.0	0.0				
	1617	2.0000009981262665	0.0	0.0	0.0	1.0	2.0	1	2.0	0.0	0.0	0.0	0.0	0.0	0.0	0.0	0.0	0.0	0.0	0.0	0.0				
	1620	1.6000009981504835	0.0	0.0	0.0	1.0	2.0	1	1.6	0.0	0.0	0.0	0.0	0.0	0.0	0.0	0.0	0.0	0.0	0.0	0.0				
...
];

%% branch data
%    f_bus    t_bus    r    x    b    rateA    rateB    rateC    ratio    angle    status    angmin    angmax
mpc.branch = [
	16	1	0.00155	0.01169	0.0182	160.0	160.0	160.0	0	0	1	-60.0001403060998	60.0001403060998	60.21142965260636	-6.940301452951769	-60.15702003517094	5.452738736204442				
	355	1	0.00157	0.06612	0.0	160.0	160.0	160.0	1.0099	0.0	1	-60.0001403060998	60.0001403060998	-60.1020777197679	7.766615102094454	60.15702003517094	-5.452738736204442				
	17	2	0.00155	0.01169	0.0182	160.0	160.0	160.0	0	0	1	-60.0001403060998	60.0001403060998	52.556630344231294	-2.7323704032133587	-52.514443081329	1.2023803680533254				
	354	2	0.00157	0.06612	0.0	160.0	160.0	160.0	1.022	0.0	1	-60.0001403060998	60.0001403060998	-52.47175901822353	3.0000047327249764	52.514443081329	-1.2023803680533254				
	10	3	0.01068	0.07895	0.1226	274.0	274.0	274.0	0	0	1	-60.0001403060998	60.0001403060998	39.8647950123612	-8.81136653070828	-39.70769583872068	-3.286493436874284				
	219	3	0.00165	0.06736	0.0	160.0	160.0	160.0	1.027	0.0	1	-60.0001403060998	60.0001403060998	-16.042547251355373	-7.627600722325514	16.047420023171746	7.826527940234709				
	220	3	0.00165	0.06736	0.0	160.0	160.0	160.0	0.9955	0.0	1	-60.0001403060998	60.0001403060998	-23.651403526909245	4.90223896564475	23.660275815548932	-4.540034503360426				
	7	4	0.01674	0.09711	0.14423	377.0	377.0	377.0	0	0	1	-60.0001403060998	60.0001403060998	-39.82581638224856	17.627567820156624	40.17543349412656	-30.735457894277634				
	11	4	0.00293	0.01599	0.02478	335.0	335.0	335.0	0	0	1	-60.0001403060998	60.0001403060998	33.24184447037042	-1.4416817640606345	-33.21054343516351	-0.9484301174645218				
	14	4	0.00442	0.03223	0.04985	463.99999999999994	463.99999999999994	463.99999999999994	0	0	1	-60.0001403060998	60.0001403060998	-38.9847096719906	-33.705287559954954	39.093934151981244	29.413914267154357				
	16	4	0.00888	0.06665	0.08896	377.0	377.0	377.0	0	0	1	-60.0001403060998	60.0001403060998	115.87462597348461	-7.841284930546948	-114.73061920427388	7.1957178377642945				
	22	4	0.00783	0.043	0.04962	350.0	350.0	350.0	0	0	1	-60.0001403060998	60.0001403060998	-36.54191675946373	19.47305043296284	36.67839576415954	-23.87903777354759				
	245	4	0.00165	0.06901	0.0	160.0	160.0	160.0	1.0594	0.0	1	-60.0001403060998	60.0001403060998	-17.815997671926286	-17.956222097190143	17.826483039477665	18.394764651567026				
	246	4	0.00165	0.06901	0.0	160.0	160.0	160.0	1.0448	0.0	1	-60.0001403060998	60.0001403060998	-14.16370397094752	-0.42418041329954975	14.16691618969238	0.5585290288040647				
	5	6	0.00064	0.0305	0.0	400.0	400.0	400.0	1.0435	-0.6	1	-60.0001403060998	60.0001403060998	-102.84398882411998	-42.3795485527695	102.92418971840569	46.20162242107494				
	7	5	0.00525	0.03988	0.06195	381.0	381.0	381.0	0	0	1	-60.0001403060998	60.0001403060998	-17.38969436297289	-11.948273273174033	17.408262467700563	5.45613338320752				
	10	5	0.01459	0.11219	0.16553	381.0	381.0	381.0	0	0	1	-60.0001403060998	60.0001403060998	-60.257829687728446	4.646018263119784	60.77168839125893	-18.56117317877575				
	309	5	0.00165	0.0686	0.0	160.0	160.0	160.0	1.0646	0.0	1	-60.0001403060998	60.0001403060998	-12.456225118041719	-35.7241241320758	12.479265804235052	36.68205811562867				
	309	5	0.00165	0.0686	0.0	160.0	160.0	160.0	1.0523	0.0	1	-60.0001403060998	60.0001403060998	-12.177067857787288	-18.482217993147067	12.184772160925423	18.802530232709056				
	6	8	0.00112	0.01329	0.34125	1316.0	1316.0	1316.0	0	0	1	-60.0001403060998	60.0001403060998	9.702904503862738	-5.942670164091036	-9.700436421109861	-28.633100739014793				
	6	9	0.00299	0.03675	0.9184	1427.0	1427.0	1427.0	0	0	1	-60.0001403060998	60.0001403060998	70.17269687197	-77.69551710315244	-69.99934634341429	-14.346244270518413				
	15	6	0.00298	0.03417	0.93504	1427.0	1427.0	1427.0	0	0	1	-60.0001403060998	60.0001403060998	-32.957925808668755	-61.94943023830079	32.99691120472964	-31.99473062448252				
	31	6	0.0015	0.01506	0.4032	1385.0	1385.0	1385.0	0	0	1	-60.0001403060998	60.0001403060998	324.4395741138808	-65.60233868250893	-322.84485911610216	40.78840944284444				
	310	6	0.0015	0.06188	0.0	250.0	250.0	250.0	1.0613	0.0	1	-60.0001403060998	60.0001403060998	-106.86680595779751	-21.161558577308554	107.04815681713411	28.64288602780663				
	12	7	0.01211	0.08742	0.14017	381.0	381.0	381.0	0	0	1	-60.0001403060998	60.0001403060998	-13.105244905719355	-4.17870566078713	13.125947172423382	-10.636185679905973				
	13	7	0.00205	0.01326	0.02243	335.0	335.0	335.0	0	0	1	-60.0001403060998	60.0001403060998	16.10691280287418	24.643743648908785	-16.089205487310203	-26.929425893421783				
	19	7	0.0057	0.0407	0.06021	323.0	323.0	323.0	0	0	1	-60.0001403060998	60.0001403060998	-22.73116618430712	15.847988046502277	22.777720446939536	-21.97460662287403				
	21	7	0.00093	0.00651	0.01113	160.0	160.0	160.0	0	0	1	-60.0001403060998	60.0001403060998	-31.743581349279765	18.152058350057555	31.755414008861475	-19.257096177136084				
	29	7	0.01269	0.07498	0.1302	362.0	362.0	362.0	0	0	1	-60.0001403060998	60.0001403060998	42.60560238412233	4.5327795712111	-42.379209320712675	-17.25633260637344				
	321	7	0.00041	0.03368	0.0	250.0	250.0	250.0	1.0323	0.0	1	-60.0001403060998	60.0001403060998	-18.236692246023033	-25.596919417671536	18.24055353781294	25.914110411534956				
	322	7	0.00165	0.06775	0.0	160.0	160.0	160.0	1.0569	0.0	1	-60.0001403060998	60.0001403060998	-29.706269768977783	-61.256668151479886	29.78429038720698	64.46024202119376				
	8	18	0.00336	0.03977	1.02163	1316.0	1316.0	1316.0	0	0	1	-60.0001403060998	60.0001403060998	9.700436421109861	28.633100739014793	-9.483052519137287	-126.24944136131906				
	332	9	0.00087	0.05244	-0.02144	330.0	330.0	330.0	1.0781	0.0	1	-60.0001403060998	60.0001403060998	-69.95669027727824	-9.57058974379394	69.99934634341429	14.346244270518413				
	171	10	0.01409	0.10413	0.15972	463.99999999999994	463.99999999999994	463.99999999999994	0	0	1	-60.0001403060998	60.0001403060998	29.057858426992432	-13.243642627895033	-28.945064230989153	-3.211365935571243				
	346	10	0.00124	0.06839	0.0	160.0	160.0	160.0	1.0054	0.0	1	-60.0001403060998	60.0001403060998	-26.820534496242093	1.9500533149415449	26.828796952110608	-1.4943522207099749				
	347	10	0.00124	0.06839	0.0	160.0	160.0	160.0	1.024	0.0	1	-60.0001403060998	60.0001403060998	-16.39100659229108	-4.18937069574747	16.39430095895528	4.3710656442665075				
	16	11	0.0057	0.03952	0.07553	463.99999999999994	463.99999999999994	463.99999999999994	0	0	1	-60.0001403060998	60.0001403060998	181.54090904807745	-12.830366181351808	-179.73551564929593	17.50237825520318				
	17	11	0.0057	0.03952	0.07553	463.99999999999994	463.99999999999994	463.99999999999994	0	0	1	-60.0001403060998	60.0001403060998	-33.154611687137034	-21.978610481212574	33.234740344815286	14.790604783566137				
	111	11	0.01068	0.06196	0.09496	394.0	394.0	394.0	0	0	1	-60.0001403060998	60.0001403060998	-52.92172520236647	38.42008269255398	53.38805314003221	-45.73158595856642				
	352	11	0.00165	0.06901	0.0	160.0	160.0	160.0	1.0412	0.0	1	-60.0001403060998	60.0001403060998	-23.682271562519034	3.214057182977337	23.691352818561956	-2.8342405287213643				
	353	11	0.00165	0.06901	0.0	160.0	160.0	160.0	1.0559	0.0	1	-60.0001403060998	60.0001403060998	-36.15363978591019	-16.631900949729655	36.179524875516066	17.7145252125791				
	140	12	0.01465	0.10589	0.17085	463.99999999999994	463.99999999999994	463.99999999999994	0	0	1	-60.0001403060998	60.0001403060998	16.45514236884923	6.926402327427191	-16.3838103971152	-25.004667387245295				
	359	12	0.00155	0.06612	0.0	160.0	160.0	160.0	1.0395	0.0	1	-60.0001403060998	60.0001403060998	-23.802627397657687	-10.749128834649012	23.81266230363713	11.177198501333455				
	360	12	0.00157	0.06612	0.0	160.0	160.0	160.0	1.059	0.0	1	-60.0001403060998	60.0001403060998	-5.671157195608166	-17.785670512735464	5.67639299919743	18.00617454669897				
	29	13	0.01345	0.08114	0.14113	339.0	339.0	339.0	0	0	1	-60.0001403060998	60.0001403060998	36.77270704762036	-1.1068199897416238	-36.601024174128	-13.152012800859564				
	365	13	0.00165	0.06901	0.0	160.0	160.0	160.0	1.0312	0.0	1	-60.0001403060998	60.0001403060998	-7.266104306658197	-9.316182454341192	7.268275734145465	9.407000763975331				
	366	13	0.00165	0.06901	0.0	160.0	160.0	160.0	0.9872	0.0	1	-60.0001403060998	60.0001403060998	-13.2164369470436	21.29182470376235	13.225835637108347	-20.898731612024555				
	17	14	0.00384	0.02853	0.04588	463.99999999999994	463.99999999999994	463.99999999999994	0	0	1	-60.0001403060998	60.0001403060998	16.821883440664884	8.32414648605914	-16.806898313396612	-12.857653560508886				
	367	14	0.00157	0.06798	0.0	160.0	160.0	160.0	1.0664	0.0	1	-60.0001403060998	60.0001403060998	-42.23839688534933	-14.118374037806161	42.269937980378984	15.484083362720098				
	368	14	0.00165	0.06901	0.0	160.0	160.0	160.0	1.0777	0.0	1	-60.0001403060998	60.0001403060998	-13.50287978724483	-30.292971134803192	13.521670005008227	31.078857757743744				
	18	15	0.00358	0.04262	1.0944	1662.0	1662.0	1662.0	0	0	1	-60.0001403060998	60.0001403060998	13.821364583429371	-115.90499591458885	-13.659721523783814	11.004749132484434				
	15	165	0.00207	0.02474	0.664	831.0	831.0	831.0	0	0	1	-60.0001403060998	60.0001403060998	-9.784880642546195	-6.571272607852715	9.801606295061676	-59.423064779960534				
	374	15	0.0015	0.06188	0.0	250.0	250.0	250.0	1.1502	0.0	1	-60.0001403060998	60.0001403060998	-56.305507093685016	-53.51351895653951	56.40252797499876	57.51595371366908				
	16	18	0.00036	0.02519	0.0	500.0	500.0	500.0	1.0605	0.0	1	-60.0001403060998	60.0001403060998	261.49543480192114	-36.952173663582336	-261.2246985555902	55.896190455462566				
	16	73	0.00909	0.0624	0.11142	463.99999999999994	463.99999999999994	463.99999999999994	0	0	1	-60.0001403060998	60.0001403060998	73.43760771905247	-25.43587344459024	-72.93403030676932	17.197107519422307				
	17	18	0.00036	0.02519	0.0	500.0	500.0	500.0	1.0607	0.0	1	-60.0001403060998	60.0001403060998	-41.58994519424869	-89.00769188337516	41.628421222655355	91.69994509327569				
	17	74	0.00868	0.06405	0.09699	463.99999999999994	463.99999999999994	463.99999999999994	0	0	1	-60.0001403060998	60.0001403060998	-33.13395789404706	-29.605473789827023	33.27977237945191	20.642084666578125				
	20	18	0.00063	0.00749	0.39226	1427.0	1427.0	1427.0	0	0	1	-60.0001403060998	60.0001403060998	-28.954459300293202	28.713376496209005	28.974832997011124	-65.82522936111481				
	75	18	0.00219	0.02369	0.59584	1434.0	1434.0	1434.0	0	0	1	-60.0001403060998	60.0001403060998	-39.45477290957054	-23.183568235732412	39.491277838269525	-32.97947993446901				
	18	76	0.00137	0.01625	0.41184	1662.0	1662.0	1662.0	0	0	1	-60.0001403060998	60.0001403060998	58.045723858372945	-25.829181642650894	-57.99650833928178	-12.67849913796165				
	18	101	0.00231	0.02769	0.70144	1662.0	1662.0	1662.0	0	0	1	-60.0001403060998	60.0001403060998	12.246129578290814	-95.80780842019084	-12.14730318919185	29.22550896386876				
	124	19	0.01696	0.12366	0.19699	463.99999999999994	463.99999999999994	463.99999999999994	0	0	1	-60.0001403060998	60.0001403060998	12.934656932926538	-1.5803449489255879	-12.895702512985574	-19.66058280874992				
	425	19	0.00165	0.06818	0.0	160.0	160.0	160.0	1.0241	0.0	1	-60.0001403060998	60.0001403060998	-35.60723964458748	-3.001498511677729	35.62686869729269	3.812594762247646				
	67	20	0.00331	0.03425	0.85888	831.0	831.0	831.0	0	0	1	-60.0001403060998	60.0001403060998	51.84720084223174	-42.06906956161557	-51.75430379126558	-39.15375230434441				
	447	20	0.00137	0.06119	-0.01504	250.0	250.0	250.0	1.0796	0.0	1	-60.0001403060998	60.0001403060998	-39.48157306063164	3.1069615572803446	39.50397275875794	-0.6682885938731844				
	448	20	0.00137	0.06119	-0.01504	250.0	250.0	250.0	1.0923	0.0	1	-60.0001403060998	60.0001403060998	-41.1789027067861	-8.525007438774104	41.20479033280084	11.108664402008587				
	502	21	0.00165	0.07107	0.0	160.0	160.0	160.0	0.9922	0.0	1	-60.0001403060998	60.0001403060998	-31.722926732821705	19.041709011678762	31.743581349279765	-18.152058350057555				
	112	22	0.00465	0.02618	0.02962	362.0	362.0	362.0	0	0	1	-60.0001403060998	60.0001403060998	-43.21017211173117	63.62366050881645	43.47486371160365	-65.27408085380378				
	526	22	0.00165	0.06901	0.0	160.0	160.0	160.0	1.0685	0.0	1	-60.0001403060998	60.0001403060998	-9.95380849000517	-39.017232988542204	9.980818696367786	40.14691440738101				
	527	22	0.00165	0.06901	0.0	160.0	160.0	160.0	1.0424	0.0	1	-60.0001403060998	60.0001403060998	16.9187852174297	-5.444176346000859	-16.91376564850771	5.654116013459937				
	37	23	0.01163	0.07031	0.1058	394.0	394.0	394.0	0	0	1	-60.0001403060998	60.0001403060998	32.43073231874947	-8.184559380115374	-32.3196999449893	-2.839610940545972				
	46	23	0.00837	0.04868	0.07348	457.0	457.0	457.0	0	0	1	-60.0001403060998	60.0001403060998	6.666286176410634	-20.71597490264106	-6.641374172339541	12.808058345766039				
	53	23	0.01122	0.06558	0.09835	274.0	274.0	274.0	0	0	1	-60.0001403060998	60.0001403060998	-2.451071804427259	-4.540506492542328	2.4517626285231144	-6.311733010625978				
	540	23	0.0014	0.0668	0.0	160.0	160.0	160.0	1.0182	0.0	1	-60.0001403060998	60.0001403060998	-36.49223162281941	4.4716680002272575	36.509311488805736	-3.6567143945940885				
	54	24	0.00769	0.05727	0.08789	160.0	160.0	160.0	0	0	1	-60.0001403060998	60.0001403060998	15.210272699462827	-18.119947036029224	-15.182183479992013	8.493587495830608				
	545	24	0.00151	0.06715	0.0	160.0	160.0	160.0	1.0161	0.0	1	-60.0001403060998	60.0001403060998	-15.178123343432635	8.674142575275985	15.182183479992013	-8.493587495830608				
	41	25	0.00556	0.04145	0.0636	274.0	274.0	274.0	0	0	1	-60.0001403060998	60.0001403060998	28.816175818620334	-6.452034095750414	-28.774260963093845	-0.3104718964823529				
	53	25	0.00452	0.03368	0.05169	463.99999999999994	463.99999999999994	463.99999999999994	0	0	1	-60.0001403060998	60.0001403060998	-28.09490121803749	-10.741718743046503	28.12976052139448	5.273599980048099				
	54	25	0.00019	0.0014	0.00213	463.99999999999994	463.99999999999994	463.99999999999994	0	0	1	-60.0001403060998	60.0001403060998	27.99853983297078	14.529815844454742	-27.99683470779901	-14.754181940774638				
	564	25	0.00157	0.07808	0.0	160.0	160.0	160.0	1.0276	0.0	1	-60.0001403060998	60.0001403060998	-28.62840076920255	-9.147794995107985	28.64133514949837	9.791053857208894				
	38	26	0.00698	0.05196	0.07967	160.0	160.0	160.0	0	0	1	-60.0001403060998	60.0001403060998	44.25503668360831	-6.892026361923706	-44.13118996817072	-0.9953842030146869				
	568	26	0.00149	0.06616	0.0	160.0	160.0	160.0	1.013	0.0	1	-60.0001403060998	60.0001403060998	-44.10489568255945	0.17215266681211588	44.13118996817072	0.9953842030146869				
	28	27	0.0	0.0001	0.0	876.0	876.0	876.0	0	0	1	-60.0001403060998	60.0001403060998	29.174014741333842	6.3251479716826005	-29.174014741333842	-6.324319527595964				
	33	27	0.0024	0.01494	0.02253	160.0	160.0	160.0	0	0	1	-60.0001403060998	60.0001403060998	-50.80865629600888	-8.123849024339707	50.86757256667534	6.072290205293275				
	48	27	0.01213	0.06215	0.09371	362.0	362.0	362.0	0	0	1	-60.0001403060998	60.0001403060998	-16.933494249911043	5.811058321986022	16.978823212234598	-15.702274957113291				
	27	74	0.01116	0.07231	0.10367	304.0	304.0	304.0	0	0	1	-60.0001403060998	60.0001403060998	-38.67238103757611	15.954304279415979	38.87563824717652	-25.677040225389796				
	47	28	0.00248	0.01798	0.02759	463.99999999999994	463.99999999999994	463.99999999999994	0	0	1	-60.0001403060998	60.0001403060998	-45.381493797369586	17.32620696207069	45.43690996398489	-19.898335296902047				
	28	88	0.01488	0.08161	0.1148	362.0	362.0	362.0	0	0	1	-60.0001403060998	60.0001403060998	-74.61092470531874	13.573187325219449	75.43493831431047	-21.366833580315852				
	30	29	0.0	0.0001	0.0	876.0	876.0	876.0	0	0	1	-60.0001403060998	60.0001403060998	-76.21079518070223	-29.637056642190867	76.21079518070223	29.643171139925904				
	29	32	0.00034	0.02097	0.0	500.0	500.0	500.0	1.0619	0.0	1	-60.0001403060998	60.0001403060998	-320.87061208629694	-76.795541776263	321.2522388344935	100.33293268709065				
	45	29	0.00545	0.04021	0.06699	463.99999999999994	463.99999999999994	463.99999999999994	0	0	1	-60.0001403060998	60.0001403060998	-27.022212055606232	-6.497230548005052	27.059188247649445	-0.5380508806897901				
	48	29	0.00574	0.04283	0.06573	463.99999999999994	463.99999999999994	463.99999999999994	0	0	1	-60.0001403060998	60.0001403060998	-38.72196585272173	-8.17888673774382	38.802418830600274	1.619437021780499				
	613	29	0.00157	0.06775	0.0	160.0	160.0	160.0	1.0016	0.0	1	-60.0001403060998	60.0001403060998	-86.32036063872465	-7.918112627167936	86.42989939764047	12.645024038980445				
	46	30	0.00545	0.04021	0.06699	463.99999999999994	463.99999999999994	463.99999999999994	0	0	1	-60.0001403060998	60.0001403060998	-26.76886597828511	-6.393299470091383	26.805128678876194	-0.6472291278450052				
	49	30	0.00707	0.04541	0.06931	362.0	362.0	362.0	0	0	1	-60.0001403060998	60.0001403060998	-36.32885676297952	-7.2762694670449015	36.41566550368392	0.28428489519106315				
	32	31	0.0	0.0001	0.0	1593.0	1593.0	1593.0	0	0	1	-60.0001403060998	60.0001403060998	-513.1674590775119	-104.69728342404703	513.1674590775119	104.96909984701333				
	39	31	0.00176	0.02144	0.57344	1385.0	1385.0	1385.0	0	0	1	-60.0001403060998	60.0001403060998	-151.47874547856097	11.339972110447814	151.902976793765	-64.36676207031417				
	36	32	0.00167	0.0189	0.54176	498.00000000000006	498.00000000000006	498.00000000000006	0	0	1	-60.0001403060998	60.0001403060998	-191.28907970684338	-51.48790802535951	191.91522024301852	4.364350736956384				
	615	33	0.00163	0.06946	0.0	160.0	160.0	160.0	1.0291	0.0	1	-60.0001403060998	60.0001403060998	-50.768366144715635	-6.406944785794626	50.80865629600888	8.123849024339707				
	35	34	0.0	0.0001	0.0	1593.0	1593.0	1593.0	0	0	1	-60.0001403060998	60.0001403060998	-54.122318517317666	47.611628447460426	54.122318517317666	-47.60685204363184				
	34	51	0.00113	0.01406	0.37488	1385.0	1385.0	1385.0	0	0	1	-60.0001403060998	60.0001403060998	-91.77681535727821	117.60485179783356	92.06213102278213	-154.15416301019053				
...